version 2
run General-0-20190527-18:23:28-7046
attr configname General
attr datetime 20190527-18:23:28
attr experiment General
attr inifile omnetpp.ini
attr iterationvars ""
attr iterationvarsf ""
attr measurement ""
attr network Network
attr processid 7046
attr repetition 0
attr replication #0
attr resultdir results
attr runnumber 0
attr seedset 0
param Network.node[0].app.destination 5
param Network.node[0].app.interArrivalTime exponential(1)
param Network.node[0].app.packetByteSize 125000
param Network.node[2].app.destination 5
param Network.node[2].app.interArrivalTime exponential(1)
param Network.node[2].app.packetByteSize 125000

vector 1  Network.node[0].lnk[0]  "Buffer Size"  ETV
vector 7  Network.node[2].lnk[0]  "Buffer Size"  ETV
vector 22  Network.node[7].lnk[0]  "Buffer Size"  ETV
vector 4  Network.node[1].lnk[0]  "Buffer Size"  ETV
vector 19  Network.node[6].lnk[0]  "Buffer Size"  ETV
vector 15  Network.node[5].app  Delay  ETV
1	3	0.898560388484	1
1	4	0.898560388484	0
1	7	1.821783519955	1
1	12	1.898560388484	0
1	37	3.773328855839	1
1	38	3.773328855839	0
1	47	3.859804212075	1
1	59	4.324377342509	2
1	64	4.773328855839	1
1	72	4.859804212075	2
1	79	5.301383768902	3
1	89	5.773328855839	2
1	101	5.786511932624	3
1	107	6.139671071762	4
1	110	6.198055740855	5
1	114	6.52596940626	6
1	120	6.773328855839	5
1	142	7.564128706924	6
1	143	7.773328855839	5
1	164	8.564128706924	6
1	168	8.773328855839	5
1	192	9.512968020783	6
1	193	9.773328855839	5
1	218	10.363172325843	6
1	219	10.773328855839	5
1	235	11.081864138406	6
1	244	11.363172325843	7
1	248	11.773328855839	6
1	264	11.834538251719	7
1	276	12.363172325843	8
1	282	12.673971104619	9
1	283	12.773328855839	8
1	305	13.363172325843	9
1	306	13.773328855839	8
1	328	14.363172325843	9
1	331	14.482340368894	10
1	334	14.556025724359	11
1	335	14.773328855839	10
1	351	14.967603720602	11
1	354	15.058764746726	12
1	369	15.363172325843	13
1	373	15.773328855839	12
1	389	16.103377255034	13
1	398	16.363172325843	14
1	399	16.773328855839	13
1	421	17.363172325843	14
1	425	17.773328855839	13
1	447	18.363172325843	14
1	448	18.773328855839	13
1	470	19.25354718371	14
1	479	19.363172325843	15
1	480	19.773328855839	14
1	502	20.363172325843	15
1	503	20.773328855839	14
1	522	21.294439399622	15
1	531	21.363172325843	16
1	532	21.773328855839	15
1	548	21.9361485723	16
1	557	22.363172325843	17
1	558	22.773328855839	16
1	575	23.363172325843	17
1	578	23.541388129362	18
1	579	23.773328855839	17
1	593	24.773328855839	16
1	613	25.155390204255	17
1	617	25.773328855839	16
1	633	25.890354625445	17
1	639	26.773328855839	16
1	655	27.026293567155	17
1	664	27.047509410774	18
1	667	27.152167976593	19
1	672	27.773328855839	18
1	689	28.047509410774	19
1	701	28.427395678817	20
1	704	28.582125359317	21
1	705	28.773328855839	20
1	725	29.182974844391	21
1	733	29.352960017784	22
1	734	29.773328855839	21
1	756	30.20440671874	22
1	757	30.773328855839	21
1	773	30.774324697878	22
1	777	31.20440671874	23
1	780	31.512151989634	24
1	783	31.624098150267	25
1	784	31.773328855839	24
1	804	32.159663870495	25
1	807	32.466944222648	26
1	813	32.673147504678	27
1	814	32.773328855839	26
1	833	33.773328855839	25
1	855	33.971148391769	26
1	858	34.008437689302	27
1	868	34.617520112485	28
1	871	34.762798139777	29
1	872	34.773328855839	28
1	888	34.781766708978	29
1	892	34.971148391769	30
1	900	35.173537519655	31
1	907	35.773328855839	30
1	929	36.101097919552	31
1	932	36.134918458721	32
1	938	36.386360390796	33
1	939	36.773328855839	32
1	955	36.874917440104	33
1	964	37.101097919552	34
1	968	37.773328855839	33
1	990	38.101097919552	34
1	991	38.773328855839	33
1	1013	39.101097919552	34
1	1019	39.752832461382	35
1	1020	39.773328855839	34
1	1042	40.101097919552	35
1	1045	40.3505785382	36
1	1049	40.773328855839	35
1	1065	40.796097033251	36
1	1074	41.101097919552	37
1	1077	41.370629439992	38
1	1081	41.773328855839	37
1	1103	42.101097919552	38
1	1104	42.773328855839	37
1	1135	43.101097919552	38
1	1138	43.696980501686	39
1	1139	43.773328855839	38
1	1161	44.101097919552	39
1	1162	44.773328855839	38
1	1178	44.795892969237	39
1	1187	45.101097919552	40
1	1188	45.773328855839	39
1	1204	45.854727100725	40
1	1213	46.101097919552	41
1	1221	46.773328855839	40
1	1240	46.965324546412	41
1	1244	47.101097919552	42
1	1247	47.10335323484	43
1	1256	47.773328855839	42
1	1275	48.492395924631	43
1	1284	48.540707172454	44
1	1288	48.773328855839	43
1	1304	48.944497984856	44
1	1319	49.540707172454	45
1	1323	49.773328855839	44
1	1339	49.788925778384	45
1	1348	50.540707172454	46
1	1352	50.773328855839	45
1	1374	51.540707172454	46
1	1375	51.773328855839	45
1	1397	52.540707172454	46
1	1398	52.773328855839	45
1	1420	53.540707172454	46
1	1421	53.773328855839	45
1	1443	54.24342262456	46
1	1446	54.477724143336	47
1	1455	54.540707172454	48
1	1456	54.773328855839	47
1	1478	55.485743388756	48
1	1487	55.540707172454	49
1	1488	55.773328855839	48
1	1510	56.540707172454	49
1	1513	56.54448610385	50
1	1514	56.773328855839	49
1	1530	57.416401957476	50
1	1539	57.540707172454	51
1	1542	57.708482490743	52
1	1543	57.773328855839	51
1	1559	58.243547167826	52
1	1568	58.540707172454	53
1	1569	58.773328855839	52
1	1585	58.871488748817	53
1	1588	59.51526975042	54
1	1597	59.540707172454	55
1	1598	59.773328855839	54
1	1614	59.795546758899	55
1	1623	60.540707172454	56
1	1630	60.77241083297	57
1	1631	60.773328855839	56
1	1653	61.184912062892	57
1	1657	61.540707172454	58
1	1663	61.773328855839	57
1	1682	62.252984260042	58
1	1685	62.401696529294	59
1	1697	62.632680586152	60
1	1701	62.773328855839	59
1	1723	63.632680586152	60
1	1724	63.773328855839	59
1	1740	63.908331862567	60
1	1743	64.368345820307	61
1	1752	64.632680586152	62
1	1753	64.773328855839	61
1	1769	65.454615201185	62
1	1778	65.632680586152	63
1	1788	65.773328855839	62
1	1810	66.632680586152	63
1	1814	66.773328855839	62
1	1830	67.174946858902	63
1	1839	67.632680586152	64
1	1840	67.773328855839	63
1	1856	68.294761224656	64
1	1859	68.395795999965	65
1	1871	68.632680586152	66
1	1872	68.773328855839	65
1	1894	69.632680586152	66
1	1895	69.773328855839	65
1	1917	70.632680586152	66
1	1918	70.773328855839	65
1	1940	71.632680586152	66
1	1941	71.773328855839	65
1	1957	71.969384372309	66
1	1965	72.632680586152	67
1	1966	72.773328855839	66
1	1991	73.773328855839	65
1	2007	74.074705673101	66
1	2010	74.132032599525	67
1	2019	74.293319858336	68
1	2020	74.773328855839	67
1	2036	75.060511096426	68
1	2045	75.293319858336	69
1	2048	75.660457983067	70
1	2049	75.773328855839	69
1	2066	76.293319858336	70
1	2067	76.773328855839	69
1	2083	77.004703255219	70
1	2086	77.024893383365	71
1	2089	77.064869682423	72
1	2096	77.64774807129	73
1	2100	77.773328855839	72
1	2128	78.773328855839	71
1	2153	79.400167332569	72
1	2157	79.773328855839	71
1	2179	80.400167332569	72
1	2183	80.773328855839	71
1	2208	81.400167332569	72
1	2211	81.539318194135	73
1	2212	81.773328855839	72
1	2228	82.074202569892	73
1	2237	82.400167332569	74
1	2238	82.773328855839	73
1	2266	83.400167332569	74
1	2270	83.773328855839	73
1	2292	84.400167332569	74
1	2295	84.578114352977	75
1	2299	84.773328855839	74
1	2321	85.400167332569	75
1	2324	85.410957869043	76
1	2331	85.773328855839	75
1	2353	86.400167332569	76
1	2357	86.773328855839	75
1	2382	87.400167332569	76
1	2385	87.41419839155	77
1	2388	87.512848699968	78
1	2389	87.773328855839	77
1	2411	88.400167332569	78
1	2412	88.773328855839	77
1	2434	89.400167332569	78
1	2438	89.773328855839	77
1	2454	90.053153207927	78
1	2457	90.139923690267	79
1	2466	90.400167332569	80
1	2470	90.773328855839	79
1	2501	91.400167332569	80
1	2502	91.773328855839	79
1	2527	92.400167332569	80
1	2528	92.773328855839	79
1	2544	92.789179618943	80
1	2547	92.930510332504	81
1	2556	93.400167332569	82
1	2557	93.773328855839	81
1	2573	93.972290986683	82
1	2585	94.400167332569	83
1	2586	94.773328855839	82
1	2602	95.232224796792	83
1	2611	95.400167332569	84
1	2614	95.573878963818	85
1	2615	95.773328855839	84
1	2631	95.88139668758	85
1	2637	96.083747126147	86
1	2646	96.400167332569	87
1	2650	96.773328855839	86
1	2666	96.966876168106	87
1	2669	96.987188626902	88
1	2672	97.167440878887	89
1	2684	97.400167332569	90
1	2685	97.773328855839	89
1	2716	98.400167332569	90
1	2717	98.773328855839	89
1	2733	98.9331819513	90
1	2745	99.400167332569	91
1	2749	99.773328855839	90
1	2765	99.776264983448	91
1	2774	100.400167332569	92
1	2778	100.773328855839	91
1	2797	101.105022857198	92
1	2806	101.400167332569	93
1	2809	101.672927010678	94
1	2810	101.773328855839	93
1	2826	101.958947983186	94
1	2835	102.400167332569	95
1	2836	102.773328855839	94
1	2852	103.36997239248	95
1	2861	103.400167332569	96
1	2862	103.773328855839	95
1	2878	104.228365360309	96
1	2890	104.400167332569	97
1	2893	104.732709166897	98
1	2894	104.773328855839	97
1	2919	105.400167332569	98
1	2920	105.773328855839	97
1	2945	106.400167332569	98
1	2946	106.773328855839	97
1	2962	106.996442742758	98
1	2968	107.248862735649	99
1	2977	107.400167332569	100
1	2978	107.773328855839	99
1	3000	108.400167332569	100
1	3001	108.773328855839	99
1	3026	109.400167332569	100
1	3027	109.773328855839	99
1	3043	110.301144392533	100
1	3055	110.400167332569	101
1	3056	110.773328855839	100
1	3072	110.893768419985	101
1	3084	111.400167332569	102
1	3085	111.773328855839	101
1	3107	112.400167332569	102
1	3110	112.767228299842	103
1	3111	112.773328855839	102
1	3133	113.400167332569	103
1	3134	113.773328855839	102
1	3150	113.969466867089	103
1	3153	114.092993514451	104
1	3162	114.400167332569	105
1	3165	114.446013647725	106
1	3166	114.773328855839	105
1	3191	115.400167332569	106
1	3192	115.773328855839	105
1	3208	115.902832206289	106
1	3217	116.400167332569	107
1	3220	116.433554702906	108
1	3224	116.773328855839	107
1	3240	116.938573450661	108
1	3249	117.400167332569	109
1	3253	117.773328855839	108
1	3278	118.400167332569	109
1	3279	118.773328855839	108
1	3298	119.068072846729	109
1	3310	119.400167332569	110
1	3311	119.773328855839	109
1	3333	120.400167332569	110
1	3334	120.773328855839	109
1	3350	121.202903296712	110
1	3359	121.400167332569	111
1	3360	121.773328855839	110
1	3376	122.382286230357	111
1	3385	122.400167332569	112
1	3389	122.773328855839	111
1	3405	123.270147640794	112
1	3414	123.400167332569	113
1	3415	123.773328855839	112
1	3434	124.34798252493	113
1	3443	124.400167332569	114
1	3447	124.773328855839	113
1	3463	125.109850296226	114
1	3466	125.371907537901	115
1	3475	125.400167332569	116
1	3476	125.773328855839	115
1	3498	126.400167332569	116
1	3501	126.404704548546	117
1	3502	126.773328855839	116
1	3518	126.907015346807	117
1	3527	127.400167332569	118
1	3530	127.458411336941	119
1	3535	127.773328855839	118
1	3552	128.400167332569	119
1	3555	128.422864902435	120
1	3567	128.773328855839	119
1	3583	129.066969610758	120
1	3589	129.425896826628	121
1	3598	129.649252527223	122
1	3599	129.773328855839	121
1	3618	130.505217025284	122
1	3627	130.649252527223	123
1	3628	130.773328855839	122
1	3647	130.847816649982	123
1	3659	131.649252527223	124
1	3660	131.773328855839	123
1	3676	131.810191705753	124
1	3679	132.370152775827	125
1	3688	132.649252527223	126
1	3692	132.773328855839	125
1	3726	133.649252527223	126
1	3727	133.773328855839	125
1	3746	134.477600380777	126
1	3755	134.649252527223	127
1	3759	134.773328855839	126
1	3775	135.371329459083	127
1	3790	135.649252527223	128
1	3791	135.773328855839	127
1	3807	136.225409194726	128
1	3819	136.649252527223	129
1	3820	136.773328855839	128
1	3845	137.649252527223	129
1	3846	137.773328855839	128
1	3874	138.649252527223	129
1	3875	138.773328855839	128
1	3900	139.649252527223	129
1	3903	139.697944674008	130
1	3904	139.773328855839	129
1	3920	139.850238299262	130
1	3923	140.30841118322	131
1	3926	140.410731798073	132
1	3935	140.649252527223	133
1	3936	140.773328855839	132
1	3952	140.983193349501	133
1	3964	141.649252527223	134
1	3965	141.773328855839	133
1	3987	142.649252527223	134
1	3988	142.773328855839	133
1	4016	143.649252527223	134
1	4017	143.773328855839	133
1	4039	144.649252527223	134
1	4040	144.773328855839	133
1	4056	145.121003110011	134
1	4068	145.649252527223	135
1	4069	145.773328855839	134
1	4085	145.891079969557	135
1	4088	146.485153467881	136
1	4094	146.59076611151	137
1	4106	146.649252527223	138
1	4107	146.773328855839	137
1	4132	147.649252527223	138
1	4133	147.773328855839	137
1	4158	148.649252527223	138
1	4159	148.773328855839	137
1	4178	149.110048241593	138
1	4187	149.649252527223	139
1	4188	149.773328855839	138
1	4210	150.649252527223	139
1	4211	150.773328855839	138
1	4227	150.94978102667	139
1	4230	151.111651113382	140
1	4239	151.649252527223	141
1	4240	151.773328855839	140
1	4262	152.649252527223	141
1	4263	152.773328855839	140
1	4279	153.461828403133	141
1	4288	153.649252527223	142
1	4289	153.773328855839	141
1	4311	154.649252527223	142
1	4312	154.773328855839	141
1	4328	155.487737220236	142
1	4331	155.526020133121	143
1	4340	155.649252527223	144
1	4346	155.703345708266	145
1	4347	155.773328855839	144
1	4375	156.649252527223	145
1	4378	156.659312132188	146
1	4382	156.773328855839	145
1	4404	157.649252527223	146
1	4405	157.773328855839	145
1	4421	158.169135587797	146
1	4433	158.649252527223	147
1	4434	158.773328855839	146
1	4456	159.649252527223	147
1	4457	159.773328855839	146
1	4473	160.171122083323	147
1	4485	160.649252527223	148
1	4488	160.70112496146	149
1	4489	160.773328855839	148
1	4505	160.851915971654	149
1	4517	161.374786001742	150
1	4526	161.649252527223	151
1	4527	161.773328855839	150
1	4543	162.570224568024	151
1	4552	162.649252527223	152
1	4553	162.773328855839	151
1	4569	163.037497134434	152
1	4572	163.641796206282	153
1	4581	163.649252527223	154
1	4582	163.773328855839	153
1	4598	164.186653334427	154
1	4607	164.649252527223	155
1	4608	164.773328855839	154
1	4630	165.466987538239	155
1	4639	165.649252527223	156
1	4640	165.773328855839	155
1	4656	165.921899383031	156
1	4665	166.649252527223	157
1	4666	166.773328855839	156
1	4694	167.649252527223	157
1	4695	167.773328855839	156
1	4717	168.649252527223	157
1	4718	168.773328855839	156
1	4743	169.631859974935	157
1	4752	169.649252527223	158
1	4753	169.773328855839	157
1	4769	170.078112795454	158
1	4778	170.649252527223	159
1	4779	170.773328855839	158
1	4804	171.649252527223	159
1	4805	171.773328855839	158
1	4830	172.649252527223	159
1	4831	172.773328855839	158
1	4847	172.962724547556	159
1	4850	173.151019522775	160
1	4853	173.565632065434	161
1	4862	173.649252527223	162
1	4866	173.773328855839	161
1	4882	174.301763165421	162
1	4888	174.35763321831	163
1	4891	174.580772426411	164
1	4900	174.649252527223	165
1	4904	174.773328855839	164
1	4923	174.77860193387	165
1	4938	175.649252527223	166
1	4939	175.773328855839	165
1	4958	176.357014655976	166
1	4967	176.649252527223	167
1	4968	176.773328855839	166
1	4984	176.780671757333	167
1	4993	177.649252527223	168
1	4994	177.773328855839	167
1	5019	178.649252527223	168
1	5020	178.773328855839	167
1	5042	179.649252527223	168
1	5045	179.66521604574	169
1	5046	179.773328855839	168
1	5065	180.602354763463	169
1	5074	180.649252527223	170
1	5075	180.773328855839	169
1	5091	181.510318790788	170
1	5094	181.542675595433	171
1	5103	181.649252527223	172
1	5107	181.773328855839	171
1	5135	182.649252527223	172
1	5136	182.773328855839	171
1	5152	183.0735068217	172
1	5155	183.125189727495	173
1	5167	183.649252527223	174
1	5168	183.773328855839	173
1	5184	183.986113364176	174
1	5187	184.257781434518	175
1	5196	184.649252527223	176
1	5197	184.773328855839	175
1	5222	185.649252527223	176
1	5223	185.773328855839	175
1	5245	186.649252527223	176
1	5246	186.773328855839	175
1	5271	187.649252527223	176
1	5272	187.773328855839	175
1	5297	188.649252527223	176
1	5298	188.773328855839	175
1	5317	189.136914322512	176
1	5326	189.649252527223	177
1	5327	189.773328855839	176
1	5343	189.903993977084	177
1	5355	190.649252527223	178
1	5356	190.773328855839	177
1	5381	191.649252527223	178
1	5382	191.773328855839	177
1	5398	191.901165944574	178
1	5410	192.649252527223	179
1	5411	192.773328855839	178
1	5427	193.210951315936	179
1	5430	193.584837811839	180
1	5439	193.649252527223	181
1	5440	193.773328855839	180
1	5456	194.392817865238	181
1	5465	194.649252527223	182
1	5466	194.773328855839	181
1	5482	194.900682987925	182
1	5485	195.139435860773	183
1	5488	195.374960434192	184
1	5494	195.626559047305	185
1	5503	195.649252527223	186
1	5507	195.773328855839	185
1	5523	195.873418316104	186
1	5532	196.649252527223	187
1	5535	196.716397091518	188
1	5536	196.773328855839	187
1	5558	197.649252527223	188
1	5559	197.773328855839	187
1	5575	198.061744524752	188
1	5583	198.649252527223	189
1	5586	198.663423511276	190
1	5587	198.773328855839	189
1	5612	199.773328855839	188
4	23	2.859704212075	1
4	24	2.859704212075	0
4	43	3.859704212075	1
4	44	3.859704212075	0
4	83	5.52586940626	1
4	84	5.52586940626	0
4	118	6.564028706924	1
4	119	6.564028706924	0
4	138	7.564028706924	1
4	139	7.564028706924	0
4	188	9.363072325843	1
4	189	9.363072325843	0
4	214	10.363072325843	1
4	215	10.363072325843	0
4	240	11.363072325843	1
4	241	11.363072325843	0
4	272	12.363072325843	1
4	273	12.363072325843	0
4	301	13.363072325843	1
4	302	13.363072325843	0
4	324	14.363072325843	1
4	325	14.363072325843	0
4	365	15.363072325843	1
4	366	15.363072325843	0
4	394	16.363072325843	1
4	395	16.363072325843	0
4	417	17.363072325843	1
4	418	17.363072325843	0
4	443	18.363072325843	1
4	444	18.363072325843	0
4	475	19.363072325843	1
4	476	19.363072325843	0
4	498	20.363072325843	1
4	499	20.363072325843	0
4	527	21.363072325843	1
4	528	21.363072325843	0
4	553	22.363072325843	1
4	554	22.363072325843	0
4	637	26.047409410774	1
4	638	26.047409410774	0
4	660	27.047409410774	1
4	661	27.047409410774	0
4	693	28.182874844391	1
4	694	28.182874844391	0
4	729	29.20430671874	1
4	730	29.20430671874	0
4	752	30.20430671874	1
4	753	30.20430671874	0
4	831	32.971048391769	1
4	832	32.971048391769	0
4	851	33.971048391769	1
4	852	33.971048391769	0
4	896	35.100997919552	1
4	897	35.100997919552	0
4	925	36.100997919552	1
4	926	36.100997919552	0
4	960	37.100997919552	1
4	961	37.100997919552	0
4	986	38.100997919552	1
4	987	38.100997919552	0
4	1009	39.100997919552	1
4	1010	39.100997919552	0
4	1038	40.100997919552	1
4	1039	40.100997919552	0
4	1070	41.100997919552	1
4	1071	41.100997919552	0
4	1099	42.100997919552	1
4	1100	42.100997919552	0
4	1131	43.100997919552	1
4	1132	43.100997919552	0
4	1157	44.100997919552	1
4	1158	44.100997919552	0
4	1183	45.100997919552	1
4	1184	45.100997919552	0
4	1209	46.100997919552	1
4	1210	46.100997919552	0
4	1254	47.540607172454	1
4	1255	47.540607172454	0
4	1280	48.540607172454	1
4	1281	48.540607172454	0
4	1315	49.540607172454	1
4	1316	49.540607172454	0
4	1344	50.540607172454	1
4	1345	50.540607172454	0
4	1370	51.540607172454	1
4	1371	51.540607172454	0
4	1393	52.540607172454	1
4	1394	52.540607172454	0
4	1416	53.540607172454	1
4	1417	53.540607172454	0
4	1451	54.540607172454	1
4	1452	54.540607172454	0
4	1483	55.540607172454	1
4	1484	55.540607172454	0
4	1506	56.540607172454	1
4	1507	56.540607172454	0
4	1535	57.540607172454	1
4	1536	57.540607172454	0
4	1564	58.540607172454	1
4	1565	58.540607172454	0
4	1593	59.540607172454	1
4	1594	59.540607172454	0
4	1619	60.540607172454	1
4	1620	60.540607172454	0
4	1661	61.632580586152	1
4	1662	61.632580586152	0
4	1693	62.632580586152	1
4	1694	62.632580586152	0
4	1719	63.632580586152	1
4	1720	63.632580586152	0
4	1748	64.632580586152	1
4	1749	64.632580586152	0
4	1774	65.632580586152	1
4	1775	65.632580586152	0
4	1806	66.632580586152	1
4	1807	66.632580586152	0
4	1835	67.632580586152	1
4	1836	67.632580586152	0
4	1867	68.632580586152	1
4	1868	68.632580586152	0
4	1890	69.632580586152	1
4	1891	69.632580586152	0
4	1913	70.632580586152	1
4	1914	70.632580586152	0
4	1936	71.632580586152	1
4	1937	71.632580586152	0
4	1986	73.293219858336	1
4	1987	73.293219858336	0
4	2015	74.293219858336	1
4	2016	74.293219858336	0
4	2041	75.293219858336	1
4	2042	75.293219858336	0
4	2123	78.400067332569	1
4	2124	78.400067332569	0
4	2149	79.400067332569	1
4	2150	79.400067332569	0
4	2175	80.400067332569	1
4	2176	80.400067332569	0
4	2204	81.400067332569	1
4	2205	81.400067332569	0
4	2233	82.400067332569	1
4	2234	82.400067332569	0
4	2262	83.400067332569	1
4	2263	83.400067332569	0
4	2288	84.400067332569	1
4	2289	84.400067332569	0
4	2317	85.400067332569	1
4	2318	85.400067332569	0
4	2349	86.400067332569	1
4	2350	86.400067332569	0
4	2378	87.400067332569	1
4	2379	87.400067332569	0
4	2407	88.400067332569	1
4	2408	88.400067332569	0
4	2430	89.400067332569	1
4	2431	89.400067332569	0
4	2462	90.400067332569	1
4	2463	90.400067332569	0
4	2497	91.400067332569	1
4	2498	91.400067332569	0
4	2523	92.400067332569	1
4	2524	92.400067332569	0
4	2552	93.400067332569	1
4	2553	93.400067332569	0
4	2581	94.400067332569	1
4	2582	94.400067332569	0
4	2607	95.400067332569	1
4	2608	95.400067332569	0
4	2642	96.400067332569	1
4	2643	96.400067332569	0
4	2680	97.400067332569	1
4	2681	97.400067332569	0
4	2712	98.400067332569	1
4	2713	98.400067332569	0
4	2741	99.400067332569	1
4	2742	99.400067332569	0
4	2770	100.400067332569	1
4	2771	100.400067332569	0
4	2802	101.400067332569	1
4	2803	101.400067332569	0
4	2831	102.400067332569	1
4	2832	102.400067332569	0
4	2857	103.400067332569	1
4	2858	103.400067332569	0
4	2886	104.400067332569	1
4	2887	104.400067332569	0
4	2915	105.400067332569	1
4	2916	105.400067332569	0
4	2941	106.400067332569	1
4	2942	106.400067332569	0
4	2973	107.400067332569	1
4	2974	107.400067332569	0
4	2996	108.400067332569	1
4	2997	108.400067332569	0
4	3022	109.400067332569	1
4	3023	109.400067332569	0
4	3051	110.400067332569	1
4	3052	110.400067332569	0
4	3080	111.400067332569	1
4	3081	111.400067332569	0
4	3103	112.400067332569	1
4	3104	112.400067332569	0
4	3129	113.400067332569	1
4	3130	113.400067332569	0
4	3158	114.400067332569	1
4	3159	114.400067332569	0
4	3187	115.400067332569	1
4	3188	115.400067332569	0
4	3213	116.400067332569	1
4	3214	116.400067332569	0
4	3245	117.400067332569	1
4	3246	117.400067332569	0
4	3274	118.400067332569	1
4	3275	118.400067332569	0
4	3306	119.400067332569	1
4	3307	119.400067332569	0
4	3329	120.400067332569	1
4	3330	120.400067332569	0
4	3355	121.400067332569	1
4	3356	121.400067332569	0
4	3381	122.400067332569	1
4	3382	122.400067332569	0
4	3410	123.400067332569	1
4	3411	123.400067332569	0
4	3439	124.400067332569	1
4	3440	124.400067332569	0
4	3471	125.400067332569	1
4	3472	125.400067332569	0
4	3494	126.400067332569	1
4	3495	126.400067332569	0
4	3523	127.400067332569	1
4	3524	127.400067332569	0
4	3565	128.649152527223	1
4	3566	128.649152527223	0
4	3594	129.649152527223	1
4	3595	129.649152527223	0
4	3623	130.649152527223	1
4	3624	130.649152527223	0
4	3655	131.649152527223	1
4	3656	131.649152527223	0
4	3684	132.649152527223	1
4	3685	132.649152527223	0
4	3722	133.649152527223	1
4	3723	133.649152527223	0
4	3751	134.649152527223	1
4	3752	134.649152527223	0
4	3786	135.649152527223	1
4	3787	135.649152527223	0
4	3815	136.649152527223	1
4	3816	136.649152527223	0
4	3841	137.649152527223	1
4	3842	137.649152527223	0
4	3870	138.649152527223	1
4	3871	138.649152527223	0
4	3896	139.649152527223	1
4	3897	139.649152527223	0
4	3931	140.649152527223	1
4	3932	140.649152527223	0
4	3960	141.649152527223	1
4	3961	141.649152527223	0
4	3983	142.649152527223	1
4	3984	142.649152527223	0
4	4012	143.649152527223	1
4	4013	143.649152527223	0
4	4035	144.649152527223	1
4	4036	144.649152527223	0
4	4064	145.649152527223	1
4	4065	145.649152527223	0
4	4102	146.649152527223	1
4	4103	146.649152527223	0
4	4128	147.649152527223	1
4	4129	147.649152527223	0
4	4154	148.649152527223	1
4	4155	148.649152527223	0
4	4183	149.649152527223	1
4	4184	149.649152527223	0
4	4206	150.649152527223	1
4	4207	150.649152527223	0
4	4235	151.649152527223	1
4	4236	151.649152527223	0
4	4258	152.649152527223	1
4	4259	152.649152527223	0
4	4284	153.649152527223	1
4	4285	153.649152527223	0
4	4307	154.649152527223	1
4	4308	154.649152527223	0
4	4336	155.649152527223	1
4	4337	155.649152527223	0
4	4371	156.649152527223	1
4	4372	156.649152527223	0
4	4400	157.649152527223	1
4	4401	157.649152527223	0
4	4429	158.649152527223	1
4	4430	158.649152527223	0
4	4452	159.649152527223	1
4	4453	159.649152527223	0
4	4481	160.649152527223	1
4	4482	160.649152527223	0
4	4522	161.649152527223	1
4	4523	161.649152527223	0
4	4548	162.649152527223	1
4	4549	162.649152527223	0
4	4577	163.649152527223	1
4	4578	163.649152527223	0
4	4603	164.649152527223	1
4	4604	164.649152527223	0
4	4635	165.649152527223	1
4	4636	165.649152527223	0
4	4661	166.649152527223	1
4	4662	166.649152527223	0
4	4690	167.649152527223	1
4	4691	167.649152527223	0
4	4713	168.649152527223	1
4	4714	168.649152527223	0
4	4748	169.649152527223	1
4	4749	169.649152527223	0
4	4774	170.649152527223	1
4	4775	170.649152527223	0
4	4800	171.649152527223	1
4	4801	171.649152527223	0
4	4826	172.649152527223	1
4	4827	172.649152527223	0
4	4858	173.649152527223	1
4	4859	173.649152527223	0
4	4896	174.649152527223	1
4	4897	174.649152527223	0
4	4934	175.649152527223	1
4	4935	175.649152527223	0
4	4963	176.649152527223	1
4	4964	176.649152527223	0
4	4989	177.649152527223	1
4	4990	177.649152527223	0
4	5015	178.649152527223	1
4	5016	178.649152527223	0
4	5038	179.649152527223	1
4	5039	179.649152527223	0
4	5070	180.649152527223	1
4	5071	180.649152527223	0
4	5099	181.649152527223	1
4	5100	181.649152527223	0
4	5131	182.649152527223	1
4	5132	182.649152527223	0
4	5163	183.649152527223	1
4	5164	183.649152527223	0
4	5192	184.649152527223	1
4	5193	184.649152527223	0
4	5218	185.649152527223	1
4	5219	185.649152527223	0
4	5241	186.649152527223	1
4	5242	186.649152527223	0
4	5267	187.649152527223	1
4	5268	187.649152527223	0
4	5293	188.649152527223	1
4	5294	188.649152527223	0
4	5322	189.649152527223	1
4	5323	189.649152527223	0
4	5351	190.649152527223	1
4	5352	190.649152527223	0
4	5377	191.649152527223	1
4	5378	191.649152527223	0
4	5406	192.649152527223	1
4	5407	192.649152527223	0
4	5435	193.649152527223	1
4	5436	193.649152527223	0
4	5461	194.649152527223	1
4	5462	194.649152527223	0
4	5499	195.649152527223	1
4	5500	195.649152527223	0
4	5528	196.649152527223	1
4	5529	196.649152527223	0
4	5554	197.649152527223	1
4	5555	197.649152527223	0
4	5610	199.64898529358	1
4	5611	199.64898529358	0
7	10	1.859604212075	1
7	11	1.859604212075	0
7	19	2.646805352057	1
7	20	2.859604212075	0
7	62	4.52576940626	1
7	63	4.52576940626	0
7	87	5.563928706924	1
7	88	5.563928706924	0
7	104	6.139447903807	1
7	115	6.563928706924	0
7	159	8.362972325843	1
7	160	8.362972325843	0
7	167	8.681328466685	1
7	184	9.164930571633	2
7	185	9.362972325843	1
7	209	9.814376919884	2
7	210	10.362972325843	1
7	236	11.362972325843	0
7	247	11.486588120209	1
7	267	12.14047068743	2
7	268	12.362972325843	1
7	279	12.639342696446	2
7	297	13.362972325843	1
7	320	14.362972325843	0
7	357	15.237596782295	1
7	360	15.258022370694	2
7	361	15.362972325843	1
7	372	15.717270507949	2
7	390	16.362972325843	1
7	413	17.362972325843	0
7	424	17.504758171388	1
7	439	18.362972325843	0
7	464	19.010542430025	1
7	467	19.16177328369	2
7	471	19.362972325843	1
7	494	20.362972325843	0
7	519	21.202087541632	1
7	523	21.362972325843	0
7	609	25.047309410774	1
7	610	25.047309410774	0
7	616	25.666238870401	1
7	634	26.047309410774	0
7	670	27.182774844391	1
7	671	27.182774844391	0
7	697	28.20420671874	1
7	698	28.20420671874	0
7	721	29.076527913782	1
7	726	29.20420671874	0
7	800	31.970948391769	1
7	801	31.970948391769	0
7	810	32.6126430938	1
7	828	32.970948391769	0
7	861	34.100897919552	1
7	862	34.100897919552	0
7	865	34.344946410289	1
7	893	35.100897919552	0
7	903	35.185281115901	1
7	906	35.347417605347	2
7	921	36.100897919552	1
7	935	36.294414282522	2
7	956	37.100897919552	1
7	967	37.25396225989	2
7	982	38.100897919552	1
7	1005	39.100897919552	0
7	1016	39.582875634104	1
7	1034	40.100897919552	0
7	1048	40.728014588804	1
7	1066	41.100897919552	0
7	1080	41.677509172301	1
7	1095	42.100897919552	0
7	1120	42.873616971758	1
7	1123	42.978178197533	2
7	1126	43.040293487999	3
7	1127	43.100897919552	2
7	1153	44.100897919552	1
7	1179	45.100897919552	0
7	1216	46.540507172454	1
7	1217	46.540507172454	0
7	1220	46.727933238472	1
7	1237	46.964139944555	2
7	1250	47.407543973176	3
7	1251	47.540507172454	2
7	1272	47.786505937459	3
7	1276	48.540507172454	2
7	1287	48.72256749723	3
7	1307	49.115680054534	4
7	1310	49.154863210947	5
7	1311	49.540507172454	4
7	1322	49.732187521754	5
7	1340	50.540507172454	4
7	1351	50.738058526921	5
7	1366	51.540507172454	4
7	1389	52.540507172454	3
7	1412	53.540507172454	2
7	1437	53.931005168975	3
7	1440	54.038640277131	4
7	1447	54.540507172454	3
7	1472	55.096466690483	4
7	1475	55.272380235909	5
7	1479	55.540507172454	4
7	1502	56.540507172454	3
7	1531	57.540507172454	2
7	1560	58.540507172454	1
7	1589	59.540507172454	0
7	1626	60.632480586152	1
7	1627	60.632480586152	0
7	1647	60.805608042298	1
7	1650	60.92256345209	2
7	1658	61.632480586152	1
7	1679	62.045731753623	2
7	1688	62.427287596997	3
7	1689	62.632480586152	2
7	1700	62.646168193504	3
7	1715	63.632480586152	2
7	1744	64.632480586152	1
7	1770	65.632480586152	0
7	1781	65.633358085356	1
7	1784	65.647022663787	2
7	1787	65.749167545312	3
7	1802	66.632480586152	2
7	1813	66.724269479468	3
7	1831	67.632480586152	2
7	1862	68.544088398752	3
7	1863	68.632480586152	2
7	1886	69.632480586152	1
7	1909	70.632480586152	0
7	1960	72.293119858336	1
7	1961	72.293119858336	0
7	1982	72.925456454732	1
7	1983	73.293119858336	0
7	1990	73.638040048065	1
7	2011	74.293119858336	0
7	2092	77.399967332569	1
7	2093	77.399967332569	0
7	2099	77.732377573533	1
7	2116	77.860434338844	2
7	2119	78.305853800764	3
7	2120	78.399967332569	2
7	2127	78.657029890145	3
7	2144	79.312676174509	4
7	2145	79.399967332569	3
7	2156	79.439064810934	4
7	2171	80.399967332569	3
7	2182	80.605938337483	4
7	2199	80.988639286345	5
7	2200	81.399967332569	4
7	2229	82.399967332569	3
7	2254	83.112876483347	4
7	2257	83.179173884829	5
7	2258	83.399967332569	4
7	2269	83.423569332911	5
7	2284	84.399967332569	4
7	2298	84.602758859976	5
7	2313	85.399967332569	4
7	2327	85.438856391946	5
7	2330	85.747271232044	6
7	2345	86.399967332569	5
7	2356	86.458519169261	6
7	2373	87.199278119708	7
7	2374	87.399967332569	6
7	2403	88.399967332569	5
7	2426	89.399967332569	4
7	2437	89.684860476685	5
7	2458	90.399967332569	4
7	2469	90.542756117759	5
7	2486	90.868096533288	6
7	2489	91.251656747387	7
7	2492	91.261057498051	8
7	2493	91.399967332569	7
7	2518	92.361903408142	8
7	2519	92.399967332569	7
7	2548	93.399967332569	6
7	2576	94.209231059144	7
7	2577	94.399967332569	6
7	2603	95.399967332569	5
7	2634	96.050513530631	6
7	2638	96.399967332569	5
7	2649	96.557713653888	6
7	2675	97.362511053689	7
7	2676	97.399967332569	6
7	2701	97.824241949733	7
7	2704	97.828948490225	8
7	2707	97.987289996456	9
7	2708	98.399967332569	8
7	2736	99.119924138428	9
7	2737	99.399967332569	8
7	2748	99.434645799283	9
7	2766	100.399967332569	8
7	2777	100.65115445272	9
7	2794	100.991501190955	10
7	2798	101.399967332569	9
7	2827	102.399967332569	8
7	2853	103.399967332569	7
7	2881	104.26664436867	8
7	2882	104.399967332569	7
7	2910	105.163235239456	8
7	2911	105.399967332569	7
7	2936	106.01245605102	8
7	2937	106.399967332569	7
7	2965	107.031114781039	8
7	2969	107.399967332569	7
7	2992	108.399967332569	6
7	3017	109.252621679513	7
7	3018	109.399967332569	6
7	3046	110.392229643046	7
7	3047	110.399967332569	6
7	3075	110.988609037376	7
7	3076	111.399967332569	6
7	3099	112.399967332569	5
7	3125	113.399967332569	4
7	3154	114.399967332569	3
7	3182	114.83161562062	4
7	3183	115.399967332569	3
7	3209	116.399967332569	2
7	3223	116.512537825166	3
7	3241	117.399967332569	2
7	3252	117.63781984201	3
7	3269	117.92523031808	4
7	3270	118.399967332569	3
7	3295	118.795766144406	4
7	3301	119.171504986813	5
7	3302	119.399967332569	4
7	3325	120.399967332569	3
7	3351	121.399967332569	2
7	3377	122.399967332569	1
7	3388	122.535875439864	2
7	3406	123.399967332569	1
7	3431	123.827784708665	2
7	3435	124.399967332569	1
7	3446	124.523584169565	2
7	3467	125.399967332569	1
7	3490	126.399967332569	0
7	3533	127.649052527223	1
7	3534	127.649052527223	0
7	3558	128.58145540763	1
7	3561	128.600835188978	2
7	3562	128.649052527223	1
7	3586	129.235962904609	2
7	3590	129.649052527223	1
7	3615	130.495006421873	2
7	3619	130.649052527223	1
7	3644	130.834671154455	2
7	3650	131.318306841044	3
7	3651	131.649052527223	2
7	3680	132.649052527223	1
7	3691	132.701286047581	2
7	3708	132.846860026029	3
7	3711	132.955407124524	4
7	3714	133.309631256769	5
7	3717	133.406554011346	6
7	3718	133.649052527223	5
7	3743	134.250442483937	6
7	3747	134.649052527223	5
7	3758	134.687470497711	6
7	3778	135.49002248347	7
7	3781	135.524225901828	8
7	3782	135.649052527223	7
7	3810	136.583235287209	8
7	3811	136.649052527223	7
7	3836	137.639084895869	8
7	3837	137.649052527223	7
7	3862	138.026214988018	8
7	3865	138.590825489139	9
7	3866	138.649052527223	8
7	3891	138.840906984117	9
7	3892	139.649052527223	8
7	3927	140.649052527223	7
7	3955	141.109540976809	8
7	3956	141.649052527223	7
7	3979	142.649052527223	6
7	4004	143.334455634034	7
7	4007	143.636021547257	8
7	4008	143.649052527223	7
7	4031	144.649052527223	6
7	4059	145.276919125184	7
7	4060	145.649052527223	6
7	4091	146.493938620521	7
7	4097	146.598820456121	8
7	4098	146.649052527223	7
7	4123	147.033166112065	8
7	4124	147.649052527223	7
7	4149	148.285773636977	8
7	4150	148.649052527223	7
7	4175	148.9192362547	8
7	4179	149.649052527223	7
7	4202	150.649052527223	6
7	4231	151.649052527223	5
7	4254	152.649052527223	4
7	4280	153.649052527223	3
7	4303	154.649052527223	2
7	4332	155.649052527223	1
7	4343	155.684626774637	2
7	4363	156.394544701861	3
7	4366	156.577083303744	4
7	4367	156.649052527223	3
7	4381	156.709267013359	4
7	4396	157.649052527223	3
7	4424	158.593195899945	4
7	4425	158.649052527223	3
7	4448	159.649052527223	2
7	4476	160.239915001272	3
7	4477	160.649052527223	2
7	4508	161.081795963004	3
7	4511	161.115582748556	4
7	4514	161.187258132869	5
7	4518	161.649052527223	4
7	4544	162.649052527223	3
7	4573	163.649052527223	2
7	4599	164.649052527223	1
7	4624	165.237104971674	2
7	4627	165.289017523857	3
7	4631	165.649052527223	2
7	4657	166.649052527223	1
7	4682	167.301790260063	2
7	4685	167.318558026055	3
7	4686	167.649052527223	2
7	4709	168.649052527223	1
7	4734	169.255135263546	2
7	4737	169.517464572712	3
7	4740	169.52924780463	4
7	4744	169.649052527223	3
7	4770	170.649052527223	2
7	4795	170.977041886618	3
7	4796	171.649052527223	2
7	4821	172.286340250641	3
7	4822	172.649052527223	2
7	4854	173.649052527223	1
7	4865	173.672631602662	2
7	4885	174.345092119496	3
7	4892	174.649052527223	2
7	4903	174.759071042169	3
7	4920	174.77776651259	4
7	4926	174.965285463793	5
7	4929	175.587882807771	6
7	4930	175.649052527223	5
7	4955	175.841388512914	6
7	4959	176.649052527223	5
7	4985	177.649052527223	4
7	5010	177.917419573357	5
7	5011	178.649052527223	4
7	5034	179.649052527223	3
7	5062	180.549638435906	4
7	5066	180.649052527223	3
7	5095	181.649052527223	2
7	5106	181.768435239249	3
7	5123	181.948392580801	4
7	5126	182.641592350339	5
7	5127	182.649052527223	4
7	5158	183.613074508434	5
7	5159	183.649052527223	4
7	5188	184.649052527223	3
7	5213	184.814045414976	4
7	5214	185.649052527223	3
7	5237	186.649052527223	2
7	5262	187.535393670889	3
7	5263	187.649052527223	2
7	5288	187.846361475859	3
7	5289	188.649052527223	2
7	5314	188.798191183401	3
7	5318	189.649052527223	2
7	5346	189.934787678658	3
7	5347	190.649052527223	2
7	5372	190.826166255568	3
7	5373	191.649052527223	2
7	5401	192.215843319344	3
7	5402	192.649052527223	2
7	5431	193.649052527223	1
7	5457	194.649052527223	0
7	5491	195.553777653198	1
7	5495	195.649052527223	0
7	5506	195.759809701681	1
7	5524	196.649052527223	0
7	5578	198.64888529358	1
7	5579	198.64888529358	0
7	5603	199.323129863216	1
7	5606	199.581142627156	2
7	5607	199.64888529358	1
15	56	3.898860388484	3.0003
15	76	4.898860388484	3.077076868529
15	133	6.773628855839	3.0003
15	156	7.773628855839	5.914024643764
15	181	8.773628855839	4.44925151333
15	206	9.773628855839	7.126823503782
15	232	10.773628855839	5.472245086937
15	261	11.773628855839	5.987116923215
15	296	12.773628855839	6.633957784077
15	319	13.773628855839	7.575573114984
15	348	14.773628855839	10.247859449579
15	386	15.773628855839	10.209700148915
15	412	16.773628855839	10.634180952032
15	438	17.773628855839	8.260660835056
15	461	18.773628855839	10.410656529996
15	493	19.773628855839	8.691764717433
15	516	20.773628855839	12.092300389154
15	545	21.773628855839	9.93909060412
15	571	22.773628855839	13.608698284206
15	592	23.773628855839	11.09965775122
15	606	24.773628855839	14.959251935955
15	630	25.773628855839	14.28704073563
15	652	26.773628855839	12.291288486945
15	685	27.773628855839	13.21760313148
15	718	28.773628855839	13.806025135237
15	747	29.773628855839	14.714864109113
15	770	30.773628855839	18.633158168409
15	797	31.773628855839	15.670251600805
15	827	32.773628855839	20.134286159393
15	846	33.773628855839	18.536032073544
15	885	34.773628855839	19.515606485145
15	920	35.773628855839	16.520081672129
15	952	36.773628855839	21.05635834789
15	981	37.773628855839	20.268870684451
15	1004	38.773628855839	17.479189456217
15	1033	39.773628855839	20.763086425814
15	1062	40.773628855839	18.837480283539
15	1094	41.773628855839	22.611855572149
15	1117	42.773628855839	21.571541314207
15	1152	43.773628855839	20.232240726477
15	1175	44.773628855839	19.618238651584
15	1201	45.773628855839	19.883274230394
15	1234	46.773628855839	19.747335288684
15	1269	47.773628855839	22.726319445065
15	1301	48.773628855839	21.621460879246
15	1336	49.773628855839	24.107389985438
15	1365	50.773628855839	22.346233177022
15	1388	51.773628855839	23.191503496522
15	1411	52.773628855839	25.590854011448
15	1434	53.773628855839	24.420668838055
15	1469	54.773628855839	26.569422137099
15	1501	55.773628855839	24.999304157961
15	1527	56.773628855839	27.697100942057
15	1556	57.773628855839	26.261476866205
15	1582	58.773628855839	27.149530705572
15	1611	59.773628855839	27.613964985344
15	1644	60.773628855839	28.306684633191
15	1676	61.773628855839	29.100481351161
15	1714	62.773628855839	30.80268046407
15	1737	63.773628855839	29.765191166537
15	1766	64.773628855839	30.156108743354
15	1801	65.773628855839	31.010830716062
15	1827	66.773628855839	31.991862146861
15	1853	67.773628855839	35.160985762039
15	1885	68.773628855839	33.600091336184
15	1908	69.773628855839	35.672730936287
15	1931	70.773628855839	34.638710397118
15	1954	71.773628855839	35.387268465043
15	1979	72.773628855839	35.898711415735
15	2004	73.773628855839	39.42868244555
15	2033	74.773628855839	39.588347739938
15	2062	75.773628855839	40.426211250492
15	2080	76.773628855839	37.020796394457
15	2113	77.773628855839	41.479214573317
15	2141	78.773628855839	38.423050317639
15	2170	79.773628855839	38.977531822588
15	2196	80.773628855839	43.519666595949
15	2225	81.773628855839	40.402999415847
15	2251	82.773628855839	43.190753221735
15	2283	83.773628855839	43.045614267035
15	2312	84.773628855839	41.076648354153
15	2344	85.773628855839	44.096119683538
15	2370	86.773628855839	41.977735886602
15	2402	87.773628855839	44.900011884081
15	2425	88.773628855839	42.918901755114
15	2451	89.773628855839	46.795450658306
15	2483	90.773628855839	43.808304309427
15	2515	91.773628855839	48.73333536784
15	2541	92.773628855839	45.670275620999
15	2570	93.773628855839	45.281232931208
15	2599	94.773628855839	48.233121683385
15	2628	95.773628855839	46.829130870983
15	2663	96.773628855839	50.045695617367
15	2698	97.773628855839	47.984703077455
15	2730	98.773628855839	51.809488911284
15	2762	99.773628855839	52.366084882663
15	2791	100.773628855839	52.98712291838
15	2823	101.773628855839	53.051061358609
15	2849	102.773628855839	48.530206231279
15	2875	103.773628855839	49.295904712503
15	2907	104.773628855839	55.657948801305
15	2933	105.773628855839	50.287885467083
15	2959	106.773628855839	57.618765644892
15	2991	107.773628855839	58.041441334085
15	3014	108.773628855839	52.229142751989
15	3040	109.773628855839	52.357226898363
15	3069	110.773628855839	60.035570328918
15	3098	111.773628855839	54.065146365096
15	3124	112.773628855839	54.530081688013
15	3147	113.773628855839	59.842623686864
15	3179	114.773628855839	55.902140107022
15	3205	115.773628855839	56.258359105419
15	3237	116.773628855839	62.734988578708
15	3266	117.773628855839	57.97808209694
15	3292	118.773628855839	63.677162165356
15	3324	119.773628855839	59.001218022869
15	3347	120.773628855839	59.588716792947
15	3373	121.773628855839	66.50124861993
15	3402	122.773628855839	60.520644595797
15	3428	123.773628855839	61.371932326545
15	3460	124.773628855839	64.141148269687
15	3489	125.773628855839	64.968020813541
15	3515	126.773628855839	62.865296993272
15	3548	127.773628855839	63.405283035532
15	3580	128.773628855839	67.851065403749
15	3612	129.773628855839	64.319013654654
15	3641	130.773628855839	68.727897102216
15	3673	131.773628855839	69.346341258842
15	3705	132.773628855839	65.598681996937
15	3740	133.773628855839	71.127460662335
15	3772	134.773628855839	66.478867631183
15	3804	135.773628855839	67.377832855874
15	3833	136.773628855839	71.140270770483
15	3859	137.773628855839	72.126606192052
15	3888	138.773628855839	73.024461310527
15	3917	139.773628855839	73.049359376371
15	3949	140.773628855839	68.80424448353
15	3978	141.773628855839	73.229540457087
15	4001	142.773628855839	68.698923182738
15	4030	143.773628855839	69.641596256314
15	4053	144.773628855839	72.480508997503
15	4082	145.773628855839	70.713117759413
15	4120	146.773628855839	73.848172401107
15	4146	147.773628855839	72.113170872772
15	4172	148.773628855839	75.135588807774
15	4201	149.773628855839	72.76892560062
15	4224	150.773628855839	73.748735472474
15	4253	151.773628855839	74.708759173416
15	4276	152.773628855839	75.125880784549
15	4302	153.773628855839	76.37366152327
15	4325	154.773628855839	77.041251282306
15	4360	155.773628855839	77.913194516995
15	4395	156.773628855839	75.234310661704
15	4418	157.773628855839	75.699426285947
15	4447	158.773628855839	80.467775055075
15	4470	159.773628855839	81.116598965694
15	4502	160.773628855839	81.46095268133
15	4540	161.773628855839	77.195514502862
15	4566	162.773628855839	83.334564044905
15	4595	163.773628855839	78.362670986796
15	4621	164.773628855839	84.167690518356
15	4653	165.773628855839	84.784989569494
15	4679	166.773628855839	79.359430464289
15	4708	167.773628855839	80.260780155871
15	4731	168.773628855839	85.660752372492
15	4766	169.773628855839	86.59445497101
15	4792	170.773628855839	80.720475647912
15	4818	171.773628855839	81.633705165572
15	4844	172.773628855839	89.350059522928
15	4879	173.773628855839	89.170869995863
15	4917	174.773628855839	89.334772463893
15	4952	175.773628855839	82.984449236896
15	4981	176.773628855839	83.843118523335
15	5007	177.773628855839	92.026357623795
15	5033	178.773628855839	84.801337869156
15	5059	179.773628855839	93.315109686578
15	5088	180.773628855839	85.541404059047
15	5120	181.773628855839	94.574350736131
15	5149	182.773628855839	87.199749892021
15	5181	183.773628855839	87.892232168259
15	5210	184.773628855839	88.689881729692
15	5236	185.773628855839	96.088768379154
15	5259	186.773628855839	89.806752687733
15	5285	187.773628855839	90.786440228937
15	5311	188.773628855839	91.606187976952
15	5340	189.773628855839	99.23087273808
15	5369	190.773628855839	99.905532322551
15	5395	191.773628855839	92.840446904539
15	5424	192.773628855839	101.52197210845
15	5453	193.773628855839	93.997363872391
15	5479	194.773628855839	103.51257135779
15	5520	195.773628855839	94.668605998641
15	5549	196.773628855839	104.4117254477
15	5572	197.773628855839	96.100701845161
15	5600	198.773628855839	96.814680872653
15	5625	199.773628855839	105.5643977967
19	33	2.898760388484	1
19	34	2.898760388484	0
19	52	3.898760388484	1
19	53	3.898760388484	0
19	97	5.773528855839	1
19	98	5.773528855839	0
19	129	6.773528855839	1
19	130	6.773528855839	0
19	152	7.773528855839	1
19	153	7.773528855839	0
19	177	8.773528855839	1
19	178	8.773528855839	0
19	202	9.773528855839	1
19	203	9.773528855839	0
19	228	10.773528855839	1
19	229	10.773528855839	0
19	257	11.773528855839	1
19	258	11.773528855839	0
19	292	12.773528855839	1
19	293	12.773528855839	0
19	315	13.773528855839	1
19	316	13.773528855839	0
19	344	14.773528855839	1
19	345	14.773528855839	0
19	382	15.773528855839	1
19	383	15.773528855839	0
19	408	16.773528855839	1
19	409	16.773528855839	0
19	434	17.773528855839	1
19	435	17.773528855839	0
19	457	18.773528855839	1
19	458	18.773528855839	0
19	489	19.773528855839	1
19	490	19.773528855839	0
19	512	20.773528855839	1
19	513	20.773528855839	0
19	541	21.773528855839	1
19	542	21.773528855839	0
19	567	22.773528855839	1
19	568	22.773528855839	0
19	588	23.773528855839	1
19	589	23.773528855839	0
19	602	24.773528855839	1
19	603	24.773528855839	0
19	626	25.773528855839	1
19	627	25.773528855839	0
19	648	26.773528855839	1
19	649	26.773528855839	0
19	681	27.773528855839	1
19	682	27.773528855839	0
19	714	28.773528855839	1
19	715	28.773528855839	0
19	743	29.773528855839	1
19	744	29.773528855839	0
19	766	30.773528855839	1
19	767	30.773528855839	0
19	793	31.773528855839	1
19	794	31.773528855839	0
19	823	32.773528855839	1
19	824	32.773528855839	0
19	842	33.773528855839	1
19	843	33.773528855839	0
19	881	34.773528855839	1
19	882	34.773528855839	0
19	916	35.773528855839	1
19	917	35.773528855839	0
19	948	36.773528855839	1
19	949	36.773528855839	0
19	977	37.773528855839	1
19	978	37.773528855839	0
19	1000	38.773528855839	1
19	1001	38.773528855839	0
19	1029	39.773528855839	1
19	1030	39.773528855839	0
19	1058	40.773528855839	1
19	1059	40.773528855839	0
19	1090	41.773528855839	1
19	1091	41.773528855839	0
19	1113	42.773528855839	1
19	1114	42.773528855839	0
19	1148	43.773528855839	1
19	1149	43.773528855839	0
19	1171	44.773528855839	1
19	1172	44.773528855839	0
19	1197	45.773528855839	1
19	1198	45.773528855839	0
19	1230	46.773528855839	1
19	1231	46.773528855839	0
19	1265	47.773528855839	1
19	1266	47.773528855839	0
19	1297	48.773528855839	1
19	1298	48.773528855839	0
19	1332	49.773528855839	1
19	1333	49.773528855839	0
19	1361	50.773528855839	1
19	1362	50.773528855839	0
19	1384	51.773528855839	1
19	1385	51.773528855839	0
19	1407	52.773528855839	1
19	1408	52.773528855839	0
19	1430	53.773528855839	1
19	1431	53.773528855839	0
19	1465	54.773528855839	1
19	1466	54.773528855839	0
19	1497	55.773528855839	1
19	1498	55.773528855839	0
19	1523	56.773528855839	1
19	1524	56.773528855839	0
19	1552	57.773528855839	1
19	1553	57.773528855839	0
19	1578	58.773528855839	1
19	1579	58.773528855839	0
19	1607	59.773528855839	1
19	1608	59.773528855839	0
19	1640	60.773528855839	1
19	1641	60.773528855839	0
19	1672	61.773528855839	1
19	1673	61.773528855839	0
19	1710	62.773528855839	1
19	1711	62.773528855839	0
19	1733	63.773528855839	1
19	1734	63.773528855839	0
19	1762	64.773528855839	1
19	1763	64.773528855839	0
19	1797	65.773528855839	1
19	1798	65.773528855839	0
19	1823	66.773528855839	1
19	1824	66.773528855839	0
19	1849	67.773528855839	1
19	1850	67.773528855839	0
19	1881	68.773528855839	1
19	1882	68.773528855839	0
19	1904	69.773528855839	1
19	1905	69.773528855839	0
19	1927	70.773528855839	1
19	1928	70.773528855839	0
19	1950	71.773528855839	1
19	1951	71.773528855839	0
19	1975	72.773528855839	1
19	1976	72.773528855839	0
19	2000	73.773528855839	1
19	2001	73.773528855839	0
19	2029	74.773528855839	1
19	2030	74.773528855839	0
19	2058	75.773528855839	1
19	2059	75.773528855839	0
19	2076	76.773528855839	1
19	2077	76.773528855839	0
19	2109	77.773528855839	1
19	2110	77.773528855839	0
19	2137	78.773528855839	1
19	2138	78.773528855839	0
19	2166	79.773528855839	1
19	2167	79.773528855839	0
19	2192	80.773528855839	1
19	2193	80.773528855839	0
19	2221	81.773528855839	1
19	2222	81.773528855839	0
19	2247	82.773528855839	1
19	2248	82.773528855839	0
19	2279	83.773528855839	1
19	2280	83.773528855839	0
19	2308	84.773528855839	1
19	2309	84.773528855839	0
19	2340	85.773528855839	1
19	2341	85.773528855839	0
19	2366	86.773528855839	1
19	2367	86.773528855839	0
19	2398	87.773528855839	1
19	2399	87.773528855839	0
19	2421	88.773528855839	1
19	2422	88.773528855839	0
19	2447	89.773528855839	1
19	2448	89.773528855839	0
19	2479	90.773528855839	1
19	2480	90.773528855839	0
19	2511	91.773528855839	1
19	2512	91.773528855839	0
19	2537	92.773528855839	1
19	2538	92.773528855839	0
19	2566	93.773528855839	1
19	2567	93.773528855839	0
19	2595	94.773528855839	1
19	2596	94.773528855839	0
19	2624	95.773528855839	1
19	2625	95.773528855839	0
19	2659	96.773528855839	1
19	2660	96.773528855839	0
19	2694	97.773528855839	1
19	2695	97.773528855839	0
19	2726	98.773528855839	1
19	2727	98.773528855839	0
19	2758	99.773528855839	1
19	2759	99.773528855839	0
19	2787	100.773528855839	1
19	2788	100.773528855839	0
19	2819	101.773528855839	1
19	2820	101.773528855839	0
19	2845	102.773528855839	1
19	2846	102.773528855839	0
19	2871	103.773528855839	1
19	2872	103.773528855839	0
19	2903	104.773528855839	1
19	2904	104.773528855839	0
19	2929	105.773528855839	1
19	2930	105.773528855839	0
19	2955	106.773528855839	1
19	2956	106.773528855839	0
19	2987	107.773528855839	1
19	2988	107.773528855839	0
19	3010	108.773528855839	1
19	3011	108.773528855839	0
19	3036	109.773528855839	1
19	3037	109.773528855839	0
19	3065	110.773528855839	1
19	3066	110.773528855839	0
19	3094	111.773528855839	1
19	3095	111.773528855839	0
19	3120	112.773528855839	1
19	3121	112.773528855839	0
19	3143	113.773528855839	1
19	3144	113.773528855839	0
19	3175	114.773528855839	1
19	3176	114.773528855839	0
19	3201	115.773528855839	1
19	3202	115.773528855839	0
19	3233	116.773528855839	1
19	3234	116.773528855839	0
19	3262	117.773528855839	1
19	3263	117.773528855839	0
19	3288	118.773528855839	1
19	3289	118.773528855839	0
19	3320	119.773528855839	1
19	3321	119.773528855839	0
19	3343	120.773528855839	1
19	3344	120.773528855839	0
19	3369	121.773528855839	1
19	3370	121.773528855839	0
19	3398	122.773528855839	1
19	3399	122.773528855839	0
19	3424	123.773528855839	1
19	3425	123.773528855839	0
19	3456	124.773528855839	1
19	3457	124.773528855839	0
19	3485	125.773528855839	1
19	3486	125.773528855839	0
19	3511	126.773528855839	1
19	3512	126.773528855839	0
19	3544	127.773528855839	1
19	3545	127.773528855839	0
19	3576	128.773528855839	1
19	3577	128.773528855839	0
19	3608	129.773528855839	1
19	3609	129.773528855839	0
19	3637	130.773528855839	1
19	3638	130.773528855839	0
19	3669	131.773528855839	1
19	3670	131.773528855839	0
19	3701	132.773528855839	1
19	3702	132.773528855839	0
19	3736	133.773528855839	1
19	3737	133.773528855839	0
19	3768	134.773528855839	1
19	3769	134.773528855839	0
19	3800	135.773528855839	1
19	3801	135.773528855839	0
19	3829	136.773528855839	1
19	3830	136.773528855839	0
19	3855	137.773528855839	1
19	3856	137.773528855839	0
19	3884	138.773528855839	1
19	3885	138.773528855839	0
19	3913	139.773528855839	1
19	3914	139.773528855839	0
19	3945	140.773528855839	1
19	3946	140.773528855839	0
19	3974	141.773528855839	1
19	3975	141.773528855839	0
19	3997	142.773528855839	1
19	3998	142.773528855839	0
19	4026	143.773528855839	1
19	4027	143.773528855839	0
19	4049	144.773528855839	1
19	4050	144.773528855839	0
19	4078	145.773528855839	1
19	4079	145.773528855839	0
19	4116	146.773528855839	1
19	4117	146.773528855839	0
19	4142	147.773528855839	1
19	4143	147.773528855839	0
19	4168	148.773528855839	1
19	4169	148.773528855839	0
19	4197	149.773528855839	1
19	4198	149.773528855839	0
19	4220	150.773528855839	1
19	4221	150.773528855839	0
19	4249	151.773528855839	1
19	4250	151.773528855839	0
19	4272	152.773528855839	1
19	4273	152.773528855839	0
19	4298	153.773528855839	1
19	4299	153.773528855839	0
19	4321	154.773528855839	1
19	4322	154.773528855839	0
19	4356	155.773528855839	1
19	4357	155.773528855839	0
19	4391	156.773528855839	1
19	4392	156.773528855839	0
19	4414	157.773528855839	1
19	4415	157.773528855839	0
19	4443	158.773528855839	1
19	4444	158.773528855839	0
19	4466	159.773528855839	1
19	4467	159.773528855839	0
19	4498	160.773528855839	1
19	4499	160.773528855839	0
19	4536	161.773528855839	1
19	4537	161.773528855839	0
19	4562	162.773528855839	1
19	4563	162.773528855839	0
19	4591	163.773528855839	1
19	4592	163.773528855839	0
19	4617	164.773528855839	1
19	4618	164.773528855839	0
19	4649	165.773528855839	1
19	4650	165.773528855839	0
19	4675	166.773528855839	1
19	4676	166.773528855839	0
19	4704	167.773528855839	1
19	4705	167.773528855839	0
19	4727	168.773528855839	1
19	4728	168.773528855839	0
19	4762	169.773528855839	1
19	4763	169.773528855839	0
19	4788	170.773528855839	1
19	4789	170.773528855839	0
19	4814	171.773528855839	1
19	4815	171.773528855839	0
19	4840	172.773528855839	1
19	4841	172.773528855839	0
19	4875	173.773528855839	1
19	4876	173.773528855839	0
19	4913	174.773528855839	1
19	4914	174.773528855839	0
19	4948	175.773528855839	1
19	4949	175.773528855839	0
19	4977	176.773528855839	1
19	4978	176.773528855839	0
19	5003	177.773528855839	1
19	5004	177.773528855839	0
19	5029	178.773528855839	1
19	5030	178.773528855839	0
19	5055	179.773528855839	1
19	5056	179.773528855839	0
19	5084	180.773528855839	1
19	5085	180.773528855839	0
19	5116	181.773528855839	1
19	5117	181.773528855839	0
19	5145	182.773528855839	1
19	5146	182.773528855839	0
19	5177	183.773528855839	1
19	5178	183.773528855839	0
19	5206	184.773528855839	1
19	5207	184.773528855839	0
19	5232	185.773528855839	1
19	5233	185.773528855839	0
19	5255	186.773528855839	1
19	5256	186.773528855839	0
19	5281	187.773528855839	1
19	5282	187.773528855839	0
19	5307	188.773528855839	1
19	5308	188.773528855839	0
19	5336	189.773528855839	1
19	5337	189.773528855839	0
19	5365	190.773528855839	1
19	5366	190.773528855839	0
19	5391	191.773528855839	1
19	5392	191.773528855839	0
19	5420	192.773528855839	1
19	5421	192.773528855839	0
19	5449	193.773528855839	1
19	5450	193.773528855839	0
19	5475	194.773528855839	1
19	5476	194.773528855839	0
19	5516	195.773528855839	1
19	5517	195.773528855839	0
19	5545	196.773528855839	1
19	5546	196.773528855839	0
19	5568	197.773528855839	1
19	5569	197.773528855839	0
19	5596	198.773528855839	1
19	5597	198.773528855839	0
19	5621	199.773528855839	1
19	5622	199.773528855839	0
22	15	1.898660388484	1
22	16	1.898660388484	0
22	29	2.898660388484	1
22	30	2.898660388484	0
22	67	4.773428855839	1
22	68	4.773428855839	0
22	93	5.773428855839	1
22	94	5.773428855839	0
22	124	6.773428855839	1
22	125	6.773428855839	0
22	147	7.773428855839	1
22	148	7.773428855839	0
22	172	8.773428855839	1
22	173	8.773428855839	0
22	197	9.773428855839	1
22	198	9.773428855839	0
22	223	10.773428855839	1
22	224	10.773428855839	0
22	252	11.773428855839	1
22	253	11.773428855839	0
22	287	12.773428855839	1
22	288	12.773428855839	0
22	310	13.773428855839	1
22	311	13.773428855839	0
22	339	14.773428855839	1
22	340	14.773428855839	0
22	377	15.773428855839	1
22	378	15.773428855839	0
22	403	16.773428855839	1
22	404	16.773428855839	0
22	429	17.773428855839	1
22	430	17.773428855839	0
22	452	18.773428855839	1
22	453	18.773428855839	0
22	484	19.773428855839	1
22	485	19.773428855839	0
22	507	20.773428855839	1
22	508	20.773428855839	0
22	536	21.773428855839	1
22	537	21.773428855839	0
22	562	22.773428855839	1
22	563	22.773428855839	0
22	583	23.773428855839	1
22	584	23.773428855839	0
22	597	24.773428855839	1
22	598	24.773428855839	0
22	621	25.773428855839	1
22	622	25.773428855839	0
22	643	26.773428855839	1
22	644	26.773428855839	0
22	676	27.773428855839	1
22	677	27.773428855839	0
22	709	28.773428855839	1
22	710	28.773428855839	0
22	738	29.773428855839	1
22	739	29.773428855839	0
22	761	30.773428855839	1
22	762	30.773428855839	0
22	788	31.773428855839	1
22	789	31.773428855839	0
22	818	32.773428855839	1
22	819	32.773428855839	0
22	837	33.773428855839	1
22	838	33.773428855839	0
22	876	34.773428855839	1
22	877	34.773428855839	0
22	911	35.773428855839	1
22	912	35.773428855839	0
22	943	36.773428855839	1
22	944	36.773428855839	0
22	972	37.773428855839	1
22	973	37.773428855839	0
22	995	38.773428855839	1
22	996	38.773428855839	0
22	1024	39.773428855839	1
22	1025	39.773428855839	0
22	1053	40.773428855839	1
22	1054	40.773428855839	0
22	1085	41.773428855839	1
22	1086	41.773428855839	0
22	1108	42.773428855839	1
22	1109	42.773428855839	0
22	1143	43.773428855839	1
22	1144	43.773428855839	0
22	1166	44.773428855839	1
22	1167	44.773428855839	0
22	1192	45.773428855839	1
22	1193	45.773428855839	0
22	1225	46.773428855839	1
22	1226	46.773428855839	0
22	1260	47.773428855839	1
22	1261	47.773428855839	0
22	1292	48.773428855839	1
22	1293	48.773428855839	0
22	1327	49.773428855839	1
22	1328	49.773428855839	0
22	1356	50.773428855839	1
22	1357	50.773428855839	0
22	1379	51.773428855839	1
22	1380	51.773428855839	0
22	1402	52.773428855839	1
22	1403	52.773428855839	0
22	1425	53.773428855839	1
22	1426	53.773428855839	0
22	1460	54.773428855839	1
22	1461	54.773428855839	0
22	1492	55.773428855839	1
22	1493	55.773428855839	0
22	1518	56.773428855839	1
22	1519	56.773428855839	0
22	1547	57.773428855839	1
22	1548	57.773428855839	0
22	1573	58.773428855839	1
22	1574	58.773428855839	0
22	1602	59.773428855839	1
22	1603	59.773428855839	0
22	1635	60.773428855839	1
22	1636	60.773428855839	0
22	1667	61.773428855839	1
22	1668	61.773428855839	0
22	1705	62.773428855839	1
22	1706	62.773428855839	0
22	1728	63.773428855839	1
22	1729	63.773428855839	0
22	1757	64.773428855839	1
22	1758	64.773428855839	0
22	1792	65.773428855839	1
22	1793	65.773428855839	0
22	1818	66.773428855839	1
22	1819	66.773428855839	0
22	1844	67.773428855839	1
22	1845	67.773428855839	0
22	1876	68.773428855839	1
22	1877	68.773428855839	0
22	1899	69.773428855839	1
22	1900	69.773428855839	0
22	1922	70.773428855839	1
22	1923	70.773428855839	0
22	1945	71.773428855839	1
22	1946	71.773428855839	0
22	1970	72.773428855839	1
22	1971	72.773428855839	0
22	1995	73.773428855839	1
22	1996	73.773428855839	0
22	2024	74.773428855839	1
22	2025	74.773428855839	0
22	2053	75.773428855839	1
22	2054	75.773428855839	0
22	2071	76.773428855839	1
22	2072	76.773428855839	0
22	2104	77.773428855839	1
22	2105	77.773428855839	0
22	2132	78.773428855839	1
22	2133	78.773428855839	0
22	2161	79.773428855839	1
22	2162	79.773428855839	0
22	2187	80.773428855839	1
22	2188	80.773428855839	0
22	2216	81.773428855839	1
22	2217	81.773428855839	0
22	2242	82.773428855839	1
22	2243	82.773428855839	0
22	2274	83.773428855839	1
22	2275	83.773428855839	0
22	2303	84.773428855839	1
22	2304	84.773428855839	0
22	2335	85.773428855839	1
22	2336	85.773428855839	0
22	2361	86.773428855839	1
22	2362	86.773428855839	0
22	2393	87.773428855839	1
22	2394	87.773428855839	0
22	2416	88.773428855839	1
22	2417	88.773428855839	0
22	2442	89.773428855839	1
22	2443	89.773428855839	0
22	2474	90.773428855839	1
22	2475	90.773428855839	0
22	2506	91.773428855839	1
22	2507	91.773428855839	0
22	2532	92.773428855839	1
22	2533	92.773428855839	0
22	2561	93.773428855839	1
22	2562	93.773428855839	0
22	2590	94.773428855839	1
22	2591	94.773428855839	0
22	2619	95.773428855839	1
22	2620	95.773428855839	0
22	2654	96.773428855839	1
22	2655	96.773428855839	0
22	2689	97.773428855839	1
22	2690	97.773428855839	0
22	2721	98.773428855839	1
22	2722	98.773428855839	0
22	2753	99.773428855839	1
22	2754	99.773428855839	0
22	2782	100.773428855839	1
22	2783	100.773428855839	0
22	2814	101.773428855839	1
22	2815	101.773428855839	0
22	2840	102.773428855839	1
22	2841	102.773428855839	0
22	2866	103.773428855839	1
22	2867	103.773428855839	0
22	2898	104.773428855839	1
22	2899	104.773428855839	0
22	2924	105.773428855839	1
22	2925	105.773428855839	0
22	2950	106.773428855839	1
22	2951	106.773428855839	0
22	2982	107.773428855839	1
22	2983	107.773428855839	0
22	3005	108.773428855839	1
22	3006	108.773428855839	0
22	3031	109.773428855839	1
22	3032	109.773428855839	0
22	3060	110.773428855839	1
22	3061	110.773428855839	0
22	3089	111.773428855839	1
22	3090	111.773428855839	0
22	3115	112.773428855839	1
22	3116	112.773428855839	0
22	3138	113.773428855839	1
22	3139	113.773428855839	0
22	3170	114.773428855839	1
22	3171	114.773428855839	0
22	3196	115.773428855839	1
22	3197	115.773428855839	0
22	3228	116.773428855839	1
22	3229	116.773428855839	0
22	3257	117.773428855839	1
22	3258	117.773428855839	0
22	3283	118.773428855839	1
22	3284	118.773428855839	0
22	3315	119.773428855839	1
22	3316	119.773428855839	0
22	3338	120.773428855839	1
22	3339	120.773428855839	0
22	3364	121.773428855839	1
22	3365	121.773428855839	0
22	3393	122.773428855839	1
22	3394	122.773428855839	0
22	3419	123.773428855839	1
22	3420	123.773428855839	0
22	3451	124.773428855839	1
22	3452	124.773428855839	0
22	3480	125.773428855839	1
22	3481	125.773428855839	0
22	3506	126.773428855839	1
22	3507	126.773428855839	0
22	3539	127.773428855839	1
22	3540	127.773428855839	0
22	3571	128.773428855839	1
22	3572	128.773428855839	0
22	3603	129.773428855839	1
22	3604	129.773428855839	0
22	3632	130.773428855839	1
22	3633	130.773428855839	0
22	3664	131.773428855839	1
22	3665	131.773428855839	0
22	3696	132.773428855839	1
22	3697	132.773428855839	0
22	3731	133.773428855839	1
22	3732	133.773428855839	0
22	3763	134.773428855839	1
22	3764	134.773428855839	0
22	3795	135.773428855839	1
22	3796	135.773428855839	0
22	3824	136.773428855839	1
22	3825	136.773428855839	0
22	3850	137.773428855839	1
22	3851	137.773428855839	0
22	3879	138.773428855839	1
22	3880	138.773428855839	0
22	3908	139.773428855839	1
22	3909	139.773428855839	0
22	3940	140.773428855839	1
22	3941	140.773428855839	0
22	3969	141.773428855839	1
22	3970	141.773428855839	0
22	3992	142.773428855839	1
22	3993	142.773428855839	0
22	4021	143.773428855839	1
22	4022	143.773428855839	0
22	4044	144.773428855839	1
22	4045	144.773428855839	0
22	4073	145.773428855839	1
22	4074	145.773428855839	0
22	4111	146.773428855839	1
22	4112	146.773428855839	0
22	4137	147.773428855839	1
22	4138	147.773428855839	0
22	4163	148.773428855839	1
22	4164	148.773428855839	0
22	4192	149.773428855839	1
22	4193	149.773428855839	0
22	4215	150.773428855839	1
22	4216	150.773428855839	0
22	4244	151.773428855839	1
22	4245	151.773428855839	0
22	4267	152.773428855839	1
22	4268	152.773428855839	0
22	4293	153.773428855839	1
22	4294	153.773428855839	0
22	4316	154.773428855839	1
22	4317	154.773428855839	0
22	4351	155.773428855839	1
22	4352	155.773428855839	0
22	4386	156.773428855839	1
22	4387	156.773428855839	0
22	4409	157.773428855839	1
22	4410	157.773428855839	0
22	4438	158.773428855839	1
22	4439	158.773428855839	0
22	4461	159.773428855839	1
22	4462	159.773428855839	0
22	4493	160.773428855839	1
22	4494	160.773428855839	0
22	4531	161.773428855839	1
22	4532	161.773428855839	0
22	4557	162.773428855839	1
22	4558	162.773428855839	0
22	4586	163.773428855839	1
22	4587	163.773428855839	0
22	4612	164.773428855839	1
22	4613	164.773428855839	0
22	4644	165.773428855839	1
22	4645	165.773428855839	0
22	4670	166.773428855839	1
22	4671	166.773428855839	0
22	4699	167.773428855839	1
22	4700	167.773428855839	0
22	4722	168.773428855839	1
22	4723	168.773428855839	0
22	4757	169.773428855839	1
22	4758	169.773428855839	0
22	4783	170.773428855839	1
22	4784	170.773428855839	0
22	4809	171.773428855839	1
22	4810	171.773428855839	0
22	4835	172.773428855839	1
22	4836	172.773428855839	0
22	4870	173.773428855839	1
22	4871	173.773428855839	0
22	4908	174.773428855839	1
22	4909	174.773428855839	0
22	4943	175.773428855839	1
22	4944	175.773428855839	0
22	4972	176.773428855839	1
22	4973	176.773428855839	0
22	4998	177.773428855839	1
22	4999	177.773428855839	0
22	5024	178.773428855839	1
22	5025	178.773428855839	0
22	5050	179.773428855839	1
22	5051	179.773428855839	0
22	5079	180.773428855839	1
22	5080	180.773428855839	0
22	5111	181.773428855839	1
22	5112	181.773428855839	0
22	5140	182.773428855839	1
22	5141	182.773428855839	0
22	5172	183.773428855839	1
22	5173	183.773428855839	0
22	5201	184.773428855839	1
22	5202	184.773428855839	0
22	5227	185.773428855839	1
22	5228	185.773428855839	0
22	5250	186.773428855839	1
22	5251	186.773428855839	0
22	5276	187.773428855839	1
22	5277	187.773428855839	0
22	5302	188.773428855839	1
22	5303	188.773428855839	0
22	5331	189.773428855839	1
22	5332	189.773428855839	0
22	5360	190.773428855839	1
22	5361	190.773428855839	0
22	5386	191.773428855839	1
22	5387	191.773428855839	0
22	5415	192.773428855839	1
22	5416	192.773428855839	0
22	5444	193.773428855839	1
22	5445	193.773428855839	0
22	5470	194.773428855839	1
22	5471	194.773428855839	0
22	5511	195.773428855839	1
22	5512	195.773428855839	0
22	5540	196.773428855839	1
22	5541	196.773428855839	0
22	5563	197.773428855839	1
22	5564	197.773428855839	0
22	5591	198.773428855839	1
22	5592	198.773428855839	0
22	5616	199.773428855839	1
22	5617	199.773428855839	0
