file 7973110 1554859265                                         
version 2
run General-0-20190410-03:20:11-3051
attr configname General
attr datetime 20190410-03:20:11
attr experiment General
attr inifile omnetpp.ini
attr iterationvars ""
attr iterationvarsf ""
attr measurement ""
attr network Network
attr processid 3051
attr repetition 0
attr replication #0
attr resultdir results
attr runnumber 0
attr seedset 0
param Network.gen.generationInterval exponential(0.001)
param Network.queue.serviceTime exponential(0.001)

vector 0  Network.sink  Delay  ETV
0	494 1697398 4 175148 0.000795874505 43.617671252025 43690 0 0.221020690311 3356.2044985127 345.28080688738
0	1697892 1735581 175152 350137 43.617838570239 87.382163834447 43690 0 0.300331321051 4829.2237730003 769.23749305902
0	3433473 1764315 350139 525517 87.38266209014 131.56295076981 43690 0 0.255925403643 3289.8707228179 337.43006278049
0	5197788 1779937 525519 700054 131.563032037015 175.330438425685 43690 0 0.254443482269 3925.2473801314 505.83840117808
0	6977725 995385 700058 798280 175.33084367187 199.999008411653 24479 0 0.206897725172 1376.45323534 127.2424838639
